3
Properties=species:S:1:pos:R:3:forces:R:3 energy=-14.061284379103745 pbc="F F F"
H       -0.00000000      -0.05821964      -0.36508771       0.00000000       0.00102826      -0.00073701
O        0.00000000       0.71238961       0.23111794      -0.00000000      -0.00431585       0.00561262
H        0.00000000       0.34583003       1.13396977       0.00000000       0.00328758      -0.00487560
