3
Properties=species:S:1:pos:R:3:forces:R:3 energy=-14.160289539751892 stress="-inf inf -inf inf -inf inf -inf inf -inf" free_energy=-14.160289539751892 pbc="F F F"
H       -0.00000000      -0.05992502      -0.35518776       0.00000000       0.00096012       0.00376003
O       -0.00000000       0.71816000       0.22904374      -0.00000000       0.00278975      -0.00641499
H        0.00000000       0.34176502       1.12614401       0.00000000      -0.00374987       0.00265496
