3
Properties=species:S:1:pos:R:3:forces:R:3 energy=-14.051503766518772 stress="inf inf -inf inf inf -inf -inf -inf inf" free_energy=-14.051503766518772 pbc="F F F"
H        0.00000000      -0.05799710      -0.36519103       0.00000000       0.00173028      -0.00086871
O        0.00000000       0.71246763       0.23122277      -0.00000000      -0.00628070       0.00742730
H        0.00000000       0.34552946       1.13396826       0.00000000       0.00455042      -0.00655859
