6
Properties=species:S:1:pos:R:3:forces:R:3 #=T CELL(abcABC):=T 200.00000=T 90.00000=T Step:=T 67=T Bead:=T 0=T positionsangstrom=T cellatomic_unit=T energy=-28.59903872092604 pbc="F F F"
O        0.13199497      -0.95806596       0.21978497       0.00000000       0.00000000       0.00000000
H       -0.81970073      -0.91278307       0.01818616      -0.00000000      -0.00000000      -0.00000000
H        0.52009056      -1.49684455      -0.49261715       0.00000000      -0.00000000      -0.00000000
O        1.44640852       1.43019958       0.93658910      -0.00000000      -0.00000000      -0.00000000
H        1.74747914       1.32039146       1.85182689       0.00000000       0.00000000       0.00000000
H        0.99275753       0.58696354       0.71087412       0.00000000       0.00000000       0.00000000
