3
Properties=species:S:1:pos:R:3:forces:R:3 energy=-14.159421576948818 stress="-inf inf -inf inf -inf inf -inf inf -inf" free_energy=-14.159421576948818 pbc="F F F"
H       -0.00000000      -0.05340710      -0.36041383       0.00000000      -0.00000000      -0.00000000
O       -0.00000000       0.71741282       0.23282222      -0.00000000       0.00000000      -0.00000000
H        0.00000000       0.33599428       1.12759160       0.00000000      -0.00000000       0.00000000
