3
Properties=species:S:1:pos:R:3:forces:R:3 energy=-14.170072280975814 pbc="F F F"
H       -0.00000000      -0.05987172      -0.35504720       0.00000000       0.00009184       0.00026334
O       -0.00000000       0.71830479       0.22899052       0.00000000      -0.00004172       0.00001889
H        0.00000000       0.34156692       1.12605668      -0.00000000      -0.00005012      -0.00028223
