6
Properties=species:S:1:pos:R:3:forces:R:3 #=T CELL(abcABC):=T 200.00000=T 90.00000=T Step:=T 67=T Bead:=T 0=T positionsangstrom=T cellatomic_unit=T energy=-28.661329247786423 pbc="F F F"
O        0.14491935      -0.96907438       0.26496875      -0.09280732      -0.18596520      -0.03105398
H       -0.79038277      -0.86677635       0.02076128      -0.00304232       0.03103550       0.00068345
H        0.53598415      -1.44612461      -0.48629241       0.02220030       0.02023972      -0.00879941
O        1.39300317       1.33940145       0.89996964       0.08126535       0.16732804       0.02188095
H        1.69735578       1.23932300       1.81554063      -0.00961346      -0.00457418      -0.02020468
H        0.93761120       0.48921859       0.67618515       0.00199746      -0.02806388       0.03749368
