6
Properties=species:S:1:pos:R:3:forces:R:3 #=T CELL(abcABC):=T 200.00000=T 90.00000=T Step:=T 67=T Bead:=T 0=T positionsangstrom=T cellatomic_unit=T energy=-27.692097932079694 pbc="F F F"
O       -0.07628546      -1.26432157       0.03008648      -1.86237968      -3.04762737      -1.45193139
H       -0.67530075      -0.50628385      -0.08207934      -0.00023503      -0.01673878      -0.00561634
H        0.61471090      -1.14835163      -0.64434819      -0.01300655       0.01704318       0.02872648
O        0.89148709       0.31952354       0.77496965       1.87084024       3.04554160       1.41682909
H        1.36021092       1.04992124       1.22373966       0.00476471       0.00313422       0.00533814
H        0.82758744      -0.44984221       1.36925436       0.00001630      -0.00135285       0.00665402
