6
Properties=species:S:1:pos:R:3:forces:R:3 #=T CELL(abcABC):=T 200.00000=T 90.00000=T Step:=T 67=T Bead:=T 0=T positionsangstrom=T cellatomic_unit=T energy=-28.584714489433953 pbc="F F F"
O        0.14616027      -0.96446681       0.26293178       0.13565032       0.23431301       0.08834074
H       -0.79194175      -0.87033784       0.02137690      -0.01121485       0.00879832      -0.00580389
H        0.53477852      -1.44984791      -0.48581600       0.00814221       0.00051549      -0.01320028
O        1.60575891       1.73179346       1.00944582      -0.12724180      -0.23046238      -0.07057093
H        1.90486364       1.61867837       1.92621443       0.00151761       0.00117945       0.00259501
H        1.15409845       0.88202477       0.79507419      -0.00685349      -0.01434389      -0.00136066
