6
Properties=species:S:1:pos:R:3:forces:R:3 #=T CELL(abcABC):=T 200.00000=T 90.00000=T Step:=T 67=T Bead:=T 0=T positionsangstrom=T cellatomic_unit=T energy=-28.367879746556248 pbc="F F F"
O        0.14451861      -0.96651546       0.26096014       0.04097971       0.05404005       0.04542191
H       -0.79391553      -0.87062290       0.02226950       0.00479941      -0.01412074      -0.02265528
H        0.53607112      -1.45158579      -0.48618368      -0.02458197      -0.00124510      -0.01137278
O        2.43047869       3.24116342       1.44738447      -0.01875290      -0.01437978      -0.03286909
H        2.73010197       3.12807190       2.36547465       0.01051012      -0.00307079       0.03118147
H        1.98539841       2.40148443       1.23871359      -0.01295437      -0.02122363      -0.00970622
