6
Properties=species:S:1:pos:R:3:forces:R:3 #=T CELL(abcABC):=T 200.00000=T 90.00000=T Step:=T 67=T Bead:=T 0=T positionsangstrom=T cellatomic_unit=T energy=-28.344848981921967 pbc="F F F"
O        0.14434279      -0.96675103       0.26076864       0.02252850       0.02019483       0.03572858
H       -0.79396135      -0.87043371       0.02240407       0.00618426      -0.01307157      -0.02264713
H        0.53629385      -1.45151477      -0.48615206      -0.02458302       0.00039565      -0.01084321
O        2.92612912       4.14772586       1.71121376      -0.00166732       0.01627297      -0.02304383
H        3.22590828       4.03502211       2.62926588       0.01041612      -0.00142547       0.02904355
H        2.48130172       3.30843809       1.50275333      -0.01287853      -0.02236642      -0.00823795
