6
Properties=species:S:1:pos:R:3:forces:R:3 #=T CELL(abcABC):=T 200.00000=T 90.00000=T Step:=T 67=T Bead:=T 0=T positionsangstrom=T cellatomic_unit=T energy=-28.503673174169244 pbc="F F F"
O        0.14525865      -0.96475773       0.26089592       0.11134862       0.17779542       0.08870553
H       -0.79363390      -0.87057523       0.02263464      -0.00420776      -0.01374827      -0.02418636
H        0.53617549      -1.45145126      -0.48574545      -0.02066189      -0.00641813      -0.01782263
O        1.77040123       2.03328681       1.09668403      -0.08267506      -0.13982128      -0.05728560
H        2.06943456       1.91950569       2.01401994       0.00939573      -0.00233475       0.02737762
H        1.32186906       1.18866607       0.88461637      -0.01319965      -0.01547299      -0.01678856
