6
Properties=species:S:1:pos:R:3:forces:R:3 #=T CELL(abcABC):=T 200.00000=T 90.00000=T Step:=T 67=T Bead:=T 0=T positionsangstrom=T cellatomic_unit=T energy=-28.323165674740515 pbc="F F F"
O        0.08254112      -0.78908932      -0.11863204      -0.92391672      -1.42564236      -0.83103974
H       -0.85458594      -1.01758715      -0.00732333      -0.04387358       0.00472159       0.01230881
H        0.44611727      -1.59920854      -0.51148466       0.02643274      -0.03514606      -0.01540367
O        1.20790583       0.94810903       0.88421201       0.91380043       1.44623507       0.79585556
H        1.63752638       1.18422710       1.71840101       0.01241144      -0.00589656       0.04052025
H        0.84122580       0.03933247       0.92909694       0.01514569       0.01572832      -0.00224121
