3
Properties=species:S:1:pos:R:3:forces:R:3 energy=-14.285823878827795 pbc="F F F"
H        0.00000000      -0.06521399      -0.34826748       0.00000000       0.01054521       0.00879506
O        0.00000000       0.71673454       0.22573454       0.00000000      -0.00459854      -0.02103834
H       -0.00000000       0.34847945       1.12253294      -0.00000000      -0.00594668       0.01224329
