3
Properties=species:S:1:pos:R:3:forces:R:3 energy=-14.15942157694877 stress="-inf inf -inf inf -inf inf -inf inf -inf" free_energy=-14.15942157694877 pbc="F F F"
H       -0.00000000      -0.05340710      -0.36041385      -0.00000000       0.00000043       0.00000067
O       -0.00000000       0.71741280       0.23282224      -0.00000000       0.00000047      -0.00000212
H        0.00000000       0.33599430       1.12759160       0.00000000      -0.00000091       0.00000146
