6
Properties=species:S:1:pos:R:3:forces:R:3 #=T CELL(abcABC):=T 200.00000=T 90.00000=T Step:=T 67=T Bead:=T 0=T positionsangstrom=T cellatomic_unit=T energy=-28.608194614789387 pbc="F F F"
O        0.14467468      -0.96530853       0.25998386       0.03381049       0.06326032       0.01683156
H       -0.79032532      -0.87355462       0.02084185      -0.01262838      -0.01042577      -0.00259736
H        0.53155941      -1.45097645      -0.48451052      -0.00192848      -0.01514557      -0.00679552
O        2.26267993       2.93418495       1.35814757      -0.01914595      -0.03065038      -0.01522075
H        2.56026101       2.81889804       2.27337932       0.00747591       0.00406201       0.01500933
H        1.81916317       2.09572850       1.15218617      -0.00758359      -0.01110061      -0.00722726
