6
Properties=species:S:1:pos:R:3:forces:R:3 #=T CELL(abcABC):=T 200.00000=T 90.00000=T Step:=T 67=T Bead:=T 0=T positionsangstrom=T cellatomic_unit=T energy=-28.597546394844397 pbc="F F F"
O        0.14465392      -0.96575959       0.26044492       0.02727287       0.04871128       0.01631643
H       -0.79016085      -0.87330461       0.02066241      -0.01077104      -0.00812388      -0.00338301
H        0.53153837      -1.45064527      -0.48461946      -0.00179674      -0.01208799      -0.00692450
O        2.39536408       3.17682969       1.42881753      -0.01340286      -0.01979370      -0.01257016
H        2.69309448       3.06184269       2.34409900       0.00671192       0.00306134       0.01414802
H        1.95192318       2.33871191       1.22266894      -0.00801416      -0.01176704      -0.00758678
