6
Properties=species:S:1:pos:R:3:forces:R:3 #=T CELL(abcABC):=T 200.00000=T 90.00000=T Step:=T 67=T Bead:=T 0=T positionsangstrom=T cellatomic_unit=T energy=-28.578004497885733 pbc="F F F"
O        0.14450180      -0.96689972       0.26134810       0.01312519       0.01667268       0.01582917
H       -0.78985738      -0.87252728       0.02036983      -0.00713804      -0.00128913      -0.00497822
H        0.53172668      -1.44981944      -0.48486980      -0.00006005      -0.00444059      -0.00781093
O        2.79341958       3.90479343       1.64080514      -0.00186018       0.00235369      -0.00759081
H        3.09162282       3.79079241       2.55619852       0.00548024       0.00196725       0.01216475
H        2.35020060       3.06744422       1.43435677      -0.00954717      -0.01526390      -0.00761396
