6
Properties=species:S:1:pos:R:3:forces:R:3 #=T CELL(abcABC):=T 200.00000=T 90.00000=T Step:=T 67=T Bead:=T 0=T positionsangstrom=T cellatomic_unit=T energy=-28.679152541845625 pbc="F F F"
O        0.11630793      -1.08129366       0.31922135      -0.00000000       0.00000000      -0.00000001
H       -0.74221599      -0.74497476       0.00813651       0.00000000      -0.00000000       0.00000000
H        0.58533611      -1.32349459      -0.49827408       0.00000000      -0.00000000       0.00000000
O        1.37537461       1.32816519       0.86730796      -0.00000000      -0.00000000      -0.00000001
H        1.73200201       1.35727552       1.76894896       0.00000000      -0.00000000       0.00000001
H        0.95222534       0.43418330       0.77930340       0.00000000       0.00000000       0.00000000
