3
Properties=species:S:1:pos:R:3:forces:R:3 energy=-14.169202956263957 pbc="F F F"
H        0.00000000      -0.05347554      -0.36037156       0.00000000       0.00003237       0.00002528
O        0.00000000       0.71740789       0.23278423      -0.00000000      -0.00002713      -0.00003683
H        0.00000000       0.33606765       1.12758733       0.00000000      -0.00000524       0.00001155
