3
Properties=species:S:1:pos:R:3:forces:R:3 energy=-14.06128495218166 pbc="F F F"
H       -0.00000000      -0.05818979      -0.36516946       0.00000000       0.00000000      -0.00000000
O        0.00000000       0.71228133       0.23118740      -0.00000000      -0.00000000      -0.00000000
H        0.00000000       0.34590846       1.13398205      -0.00000000      -0.00000000       0.00000000
