6
Properties=species:S:1:pos:R:3:forces:R:3 #=T CELL(abcABC):=T 200.00000=T 90.00000=T Step:=T 67=T Bead:=T 0=T positionsangstrom=T cellatomic_unit=T energy=-28.02366044916264 pbc="F F F"
O       -0.06348338      -1.28221761       0.07058860      -1.34518023      -2.37400369      -0.92942661
H       -0.60472243      -0.48032239      -0.02475129      -0.03074356       0.03132080      -0.01976147
H        0.59200126      -1.22655046      -0.64471432       0.01757903      -0.01073009      -0.00909524
O        0.91046110       0.44069682       0.77272678       1.35485368       2.34205961       0.95276350
H        1.38578777       1.15592181       1.23313042      -0.03096675      -0.00071690       0.02208640
H        0.86180591      -0.35183663       1.33885819       0.03445784       0.01207027      -0.01656658
