6
Properties=species:S:1:pos:R:3:forces:R:3 #=T CELL(abcABC):=T 200.00000=T 90.00000=T Step:=T 67=T Bead:=T 0=T positionsangstrom=T cellatomic_unit=T energy=-28.564864646176524 pbc="F F F"
O        0.12971223      -0.95983493       0.21496893      -0.48938720      -0.88374914      -0.27854947
H       -0.81328296      -0.89335391      -0.00740540       0.02143327       0.02058774       0.00960038
H        0.51404132      -1.47288218      -0.51456325       0.00745021       0.02619818       0.01537760
O        1.29717950       1.15404031       0.86192461       0.46287752       0.83120766       0.26439180
H        1.64839600       1.17075661       1.76488268      -0.00074038       0.00915345      -0.01312706
H        0.86356458       0.27714974       0.72289392      -0.00163342      -0.00339790       0.00230674
