6
Properties=species:S:1:pos:R:3:forces:R:3 #=T CELL(abcABC):=T 200.00000=T 90.00000=T Step:=T 67=T Bead:=T 0=T positionsangstrom=T cellatomic_unit=T energy=-28.348754354018435 pbc="F F F"
O        0.14436393      -0.96672904       0.26079897       0.02494192       0.02455530       0.03707286
H       -0.79397964      -0.87044115       0.02239255       0.00601990      -0.01312181      -0.02269112
H        0.53629159      -1.45152904      -0.48616966      -0.02455847       0.00026546      -0.01095818
O        2.76087590       3.84548160       1.62324052      -0.00403246       0.01200498      -0.02437707
H        3.06064812       3.73273672       2.54132206       0.01043516      -0.00148737       0.02916447
H        2.31602747       3.00613714       1.41479087      -0.01280605      -0.02221656      -0.00821097
