6
Properties=species:S:1:pos:R:3:forces:R:3 #=T CELL(abcABC):=T 200.00000=T 90.00000=T Step:=T 67=T Bead:=T 0=T positionsangstrom=T cellatomic_unit=T energy=-28.35522872161235 pbc="F F F"
O        0.14441810      -0.96666035       0.26086217       0.03058015       0.03499206       0.03992327
H       -0.79396836      -0.87051839       0.02233901       0.00552676      -0.01362257      -0.02270312
H        0.53620497      -1.45156352      -0.48618576      -0.02464825      -0.00041051      -0.01112245
O        2.59565592       3.54328181       1.53530345      -0.00916826       0.00283282      -0.02737647
H        2.89538848       3.43043530       2.45339810       0.01055922      -0.00192306       0.02999150
H        2.15074120       2.70385108       1.32678002      -0.01284962      -0.02186874      -0.00871275
