3
Properties=species:S:1:pos:R:3:forces:R:3 energy=-14.061284952176637 pbc="F F F"
H        0.00000000      -0.05818962      -0.36516921      -0.00000000      -0.00001702      -0.00001441
O        0.00000000       0.71228125       0.23118726       0.00000000       0.00001549       0.00001558
H        0.00000000       0.34590837       1.13398194       0.00000000       0.00000153      -0.00000116
