3
Properties=species:S:1:pos:R:3:forces:R:3 energy=-14.170072284512749 pbc="F F F"
H       -0.00000000      -0.05987030      -0.35503414      -0.00000000       0.00000000      -0.00000012
O       -0.00000000       0.71831154       0.22898949       0.00000000      -0.00000043       0.00000089
H        0.00000000       0.34155876       1.12604465      -0.00000000       0.00000043      -0.00000078
