3
Properties=species:S:1:pos:R:3:forces:R:3 energy=-14.05150487816022 stress="inf inf inf inf inf inf inf inf inf" free_energy=-14.05150487816022 pbc="F F F"
H        0.00000000      -0.05795204      -0.36530767       0.00000000       0.00000030       0.00000056
O        0.00000000       0.71231118       0.23131710      -0.00000000      -0.00000033       0.00000020
H        0.00000000       0.34564086       1.13399058      -0.00000000       0.00000003      -0.00000076
