3
Properties=species:S:1:pos:R:3:forces:R:3 energy=-14.170072284512758 pbc="F F F"
H       -0.00000000      -0.05987030      -0.35503414      -0.00000000       0.00000000      -0.00000001
O       -0.00000000       0.71831153       0.22898950       0.00000000      -0.00000001       0.00000001
H        0.00000000       0.34155877       1.12604464      -0.00000000       0.00000001      -0.00000000
