3
Properties=species:S:1:pos:R:3:forces:R:3 energy=-14.16920258440073 pbc="F F F"
H       -0.00000000      -0.05350642      -0.36031603      -0.00000000       0.00174255       0.00013980
O       -0.00000000       0.71750427       0.23273881       0.00000000      -0.00428221       0.00339084
H       -0.00000000       0.33600215       1.12757722      -0.00000000       0.00253966      -0.00353064
