6
Properties=species:S:1:pos:R:3:forces:R:3 #=T CELL(abcABC):=T 200.00000=T 90.00000=T Step:=T 67=T Bead:=T 0=T positionsangstrom=T cellatomic_unit=T energy=-28.677073827580582 pbc="F F F"
O        0.14414906      -0.96533092       0.25864832       0.09698354       0.15595943       0.07584740
H       -0.79126326      -0.87108724       0.02292220      -0.00468154      -0.01347469      -0.02179295
H        0.53482875      -1.45034229      -0.48403751      -0.01892012      -0.00713445      -0.01625064
O        1.86409974       2.20476208       1.14645370      -0.07083675      -0.10626362      -0.06450930
H        2.16189963       2.09046682       2.06112284       0.00663561      -0.00928950       0.02807004
H        1.41909804       1.36439465       0.93878349      -0.00918074      -0.01979717      -0.00136455
