6
Properties=species:S:1:pos:R:3:forces:R:3 #=T CELL(abcABC):=T 200.00000=T 90.00000=T Step:=T 67=T Bead:=T 0=T positionsangstrom=T cellatomic_unit=T energy=-28.780506521033967 pbc="F F F"
O        0.14429526      -0.96756301       0.26161750      -0.06506722      -0.14126703      -0.00846785
H       -0.79010054      -0.86813752       0.02237352      -0.01416143       0.02616260       0.00010511
H        0.53587670      -1.44730601      -0.48452150       0.02436663       0.00954609      -0.01459814
O        1.46512520       1.47507518       0.93406990       0.06978447       0.13947171       0.02379203
H        1.76368347       1.36278513       1.84837690       0.00322682       0.00267910       0.00529547
H        1.01873097       0.63190054       0.72584150      -0.01814927      -0.03659247      -0.00612661
