6
Properties=species:S:1:pos:R:3:forces:R:3 #=T CELL(abcABC):=T 200.00000=T 90.00000=T Step:=T 67=T Bead:=T 0=T positionsangstrom=T cellatomic_unit=T energy=-28.832120424265995 pbc="F F F"
O        0.09474863      -1.09093013       0.27208196       0.05555440       0.08537733       0.04840461
H       -0.76368911      -0.73780278      -0.02727848      -0.01139054       0.00435271      -0.01228548
H        0.57850998      -1.32567708      -0.54159359       0.00203831       0.00121625      -0.01626959
O        1.00828324       0.63612860       0.69954266      -0.05415338      -0.09983322      -0.03272830
H        1.41559341       0.81910014       1.55690940       0.00042785      -0.00183610       0.00379634
H        0.60896400      -0.30017323       0.71196065       0.00752336       0.01072302       0.00908242
