3
Properties=species:S:1:pos:R:3:forces:R:3 energy=-14.0515048781447 stress="inf inf inf inf inf inf inf inf -inf" free_energy=-14.0515048781447 pbc="F F F"
H        0.00000000      -0.05795208      -0.36530700       0.00000000       0.00000735      -0.00000394
O        0.00000000       0.71231165       0.23131725      -0.00000000      -0.00000316      -0.00002658
H        0.00000000       0.34564043       1.13398975       0.00000000      -0.00000418       0.00003052
