3
Properties=species:S:1:pos:R:3:forces:R:3 energy=-14.285827633315275 pbc="F F F"
H        0.00000000      -0.06513716      -0.34815985       0.00000000       0.00198588       0.00148545
O        0.00000000       0.71675061       0.22555587      -0.00000000      -0.00182602      -0.00181464
H       -0.00000000       0.34838655       1.12260398      -0.00000000      -0.00015985       0.00032918
