3
Properties=species:S:1:pos:R:3:forces:R:3 energy=-14.159421175757858 stress="inf -inf inf -inf inf -inf inf -inf inf" free_energy=-14.159421175757858 pbc="F F F"
H       -0.00000000      -0.05344414      -0.36035357      -0.00000000       0.00228961       0.00041719
O       -0.00000000       0.71752061       0.23278155       0.00000000      -0.00479055       0.00273117
H        0.00000000       0.33592353       1.12757202      -0.00000000       0.00250094      -0.00314836
