3
Properties=species:S:1:pos:R:3:forces:R:3 energy=-14.061209482191046 pbc="F F F"
H       -0.00000000      -0.05758359      -0.36490313      -0.00000000      -0.06425152      -0.04539145
O        0.00000000       0.71159986       0.23054308       0.00000000       0.05416408       0.07947410
H        0.00000000       0.34598372       1.13436005       0.00000000       0.01008743      -0.03408265
