3
Properties=species:S:1:pos:R:3:forces:R:3 energy=-14.285827696949548 pbc="F F F"
H        0.00000000      -0.06511768      -0.34814177       0.00000000       0.00009988       0.00006971
O        0.00000000       0.71673536       0.22553996      -0.00000000      -0.00013924       0.00001859
H       -0.00000000       0.34838232       1.12260181       0.00000000       0.00003937      -0.00008829
