3
Properties=species:S:1:pos:R:3:forces:R:3 energy=-14.159421571453782 stress="inf -inf -inf -inf inf inf -inf inf inf" free_energy=-14.159421571453782 pbc="F F F"
H       -0.00000000      -0.05341335      -0.36041237      -0.00000000       0.00055782       0.00032708
O       -0.00000000       0.71742359       0.23282425       0.00000000      -0.00063086      -0.00036231
H        0.00000000       0.33598976       1.12758813      -0.00000000       0.00007304       0.00003524
