3
Properties=species:S:1:pos:R:3:forces:R:3 energy=-14.160290476990022 stress="inf -inf inf -inf inf -inf inf -inf inf" free_energy=-14.160290476990022 pbc="F F F"
H       -0.00000000      -0.05992480      -0.35500764       0.00000000       0.00000510       0.00001035
O       -0.00000000       0.71829913       0.22895948       0.00000000      -0.00001275       0.00002134
H        0.00000000       0.34162567       1.12604815      -0.00000000       0.00000765      -0.00003170
