6
Properties=species:S:1:pos:R:3:forces:R:3 #=T CELL(abcABC):=T 200.00000=T 90.00000=T Step:=T 67=T Bead:=T 0=T positionsangstrom=T cellatomic_unit=T energy=-28.565486487344497 stress="inf inf inf inf inf inf inf inf -inf" free_energy=-28.565486487344497 pbc="F F F"
O        0.14452250      -0.96673922       0.26122014       0.01610433       0.02279379       0.01666083
H       -0.78990999      -0.87255378       0.02051646      -0.00710640      -0.00193359      -0.00430129
H        0.53181991      -1.44990828      -0.48477828      -0.00010346      -0.00504126      -0.00710130
O        2.52788554       3.41904325       1.49955463      -0.00392102      -0.00184698      -0.00820881
H        2.82592982       3.30471738       2.41490494       0.00466070      -0.00059560       0.01295427
H        2.08456571       2.58181841       1.29270051      -0.00963416      -0.01337636      -0.01000370
