6
Properties=species:S:1:pos:R:3:forces:R:3 #=T CELL(abcABC):=T 200.00000=T 90.00000=T Step:=T 67=T Bead:=T 0=T positionsangstrom=T cellatomic_unit=T energy=-28.63311397068299 stress="inf inf inf inf inf inf inf inf inf" free_energy=-28.63311397068299 pbc="F F F"
O        0.14466927      -0.96694107       0.26184719       0.05536199       0.08654819       0.04680220
H       -0.78963902      -0.87067247       0.02141648      -0.00458604       0.01159358      -0.00129127
H        0.53343263      -1.44860369      -0.48438642       0.00922875       0.00559258      -0.00664931
O        1.86385546       2.20458353       1.14601285      -0.04499309      -0.07706370      -0.03001108
H        2.16126921       2.08898592       2.06116300      -0.00068700      -0.01072226       0.01046930
H        1.41922442       1.36551090       0.93783994      -0.01432461      -0.01594840      -0.01931984
