6
Properties=species:S:1:pos:R:3:forces:R:3 #=T CELL(abcABC):=T 200.00000=T 90.00000=T Step:=T 67=T Bead:=T 0=T positionsangstrom=T cellatomic_unit=T energy=-28.577640520557733 stress="inf inf inf inf inf inf inf inf -inf" free_energy=-28.577640520557733 pbc="F F F"
O        0.14458937      -0.96663787       0.26128109       0.01898313       0.02753302       0.01879584
H       -0.78987869      -0.87241064       0.02066122      -0.00663460      -0.00093404      -0.00347099
H        0.53198083      -1.44982108      -0.48468233       0.00079008      -0.00421874      -0.00642341
O        2.26234148       2.93333380       1.35823421      -0.00621055      -0.00644006      -0.00895307
H        2.56012303       2.81846113       2.27351890       0.00323792      -0.00407303       0.01319849
H        1.81885687       2.09604656       1.15101517      -0.01016599      -0.01186715      -0.01314687
