6
Properties=species:S:1:pos:R:3:forces:R:3 #=T CELL(abcABC):=T 200.00000=T 90.00000=T Step:=T 67=T Bead:=T 0=T positionsangstrom=T cellatomic_unit=T energy=-28.047420708939875 stress="inf -inf -inf -inf -inf -inf -inf -inf -inf" free_energy=-28.047420708939875 pbc="F F F"
O        0.32449438      -1.13249449       0.10728489      -0.05172004      -0.19746503      -0.07174643
H       -0.53321994      -0.76289410       0.35452311       0.03762143      -0.01765751       0.00573444
H        0.12694722      -2.01636549      -0.24987981      -0.00135714       0.04859970       0.01035869
O        0.62127595       0.68017219       0.89858776       0.01373693       0.18237634       0.03383023
H        1.30498508       0.29749819       1.46551659       0.00065420      -0.02061003       0.00762266
H        1.09792744       0.93472923       0.09559007       0.00106462       0.00475653       0.01420040
