6
Properties=species:S:1:pos:R:3:forces:R:3 #=T CELL(abcABC):=T 200.00000=T 90.00000=T Step:=T 67=T Bead:=T 0=T positionsangstrom=T cellatomic_unit=T energy=-28.742785264095282 stress="-inf -inf -inf -inf -inf -inf -inf -inf -inf" free_energy=-28.742785264095282 pbc="F F F"
O        0.14418016      -0.96751426       0.26125836      -0.06895068      -0.14465304      -0.01485147
H       -0.79046848      -0.86823408       0.02243540      -0.01186678       0.02422963       0.00049724
H        0.53603122      -1.44763633      -0.48465856       0.02217629       0.00954404      -0.01246795
O        1.46516205       1.47483815       0.93444991       0.07117747       0.14256278       0.02399101
H        1.76414521       1.36358797       1.84866250       0.00390150       0.00416968       0.00530041
H        1.01856090       0.63171286       0.72561022      -0.01643779      -0.03585309      -0.00246925
