6
Properties=species:S:1:pos:R:3:forces:R:3 #=T CELL(abcABC):=T 200.00000=T 90.00000=T Step:=T 67=T Bead:=T 0=T positionsangstrom=T cellatomic_unit=T energy=-28.679405724362656 stress="inf inf inf inf inf inf inf inf inf" free_energy=-28.679405724362656 pbc="F F F"
O        0.14478769      -0.96718328       0.26244185       0.08343630       0.13241379       0.06806694
H       -0.78928604      -0.86922902       0.02190652      -0.00836289       0.02309417       0.00167138
H        0.53448382      -1.44745672      -0.48415988       0.02033373       0.01064911      -0.00935846
O        1.73101718       1.96170961       1.07519304      -0.07460705      -0.12990148      -0.04735021
H        2.02826357       1.84587124       1.99018309      -0.00155028      -0.01188085       0.00950858
H        1.28514544       1.12044834       0.86628335      -0.01924980      -0.02437474      -0.02253823
