6
Properties=species:S:1:pos:R:3:forces:R:3 #=T CELL(abcABC):=T 200.00000=T 90.00000=T Step:=T 67=T Bead:=T 0=T positionsangstrom=T cellatomic_unit=T energy=-28.615312653349733 stress="-inf -inf -inf -inf -inf -inf -inf -inf -inf" free_energy=-28.615312653349733 pbc="F F F"
O        0.14306679      -0.96544457       0.25595883      -0.40977526      -0.77614526      -0.18691913
H       -0.79419802      -0.86839869       0.02552354      -0.00259742      -0.00374651      -0.02821128
H        0.53952787      -1.45098288      -0.48434708      -0.01710963       0.00281058      -0.02254550
O        1.33269495       1.23128810       0.86538093       0.41626572       0.75833696       0.22595222
H        1.63271549       1.12267258       1.77932597       0.01940872       0.04541853      -0.00127920
H        0.88540366       0.38891684       0.65387057      -0.00619212      -0.02667430       0.01300288
