6
Properties=species:S:1:pos:R:3:forces:R:3 #=T CELL(abcABC):=T 200.00000=T 90.00000=T Step:=T 67=T Bead:=T 0=T positionsangstrom=T cellatomic_unit=T energy=-28.587767756779193 stress="inf inf inf inf inf inf inf inf -inf" free_energy=-28.587767756779193 pbc="F F F"
O        0.14459648      -0.96677274       0.26145638       0.02528134       0.03708853       0.02439876
H       -0.78982516      -0.87199412       0.02082686      -0.00556476       0.00204097      -0.00300796
H        0.53232170      -1.44952863      -0.48462549       0.00247087      -0.00149644      -0.00618201
O        2.12950004       2.69037245       1.28751380      -0.01297568      -0.01882188      -0.01254021
H        2.42716637       2.57525762       2.20277092       0.00189745      -0.00666159       0.01262865
H        1.68585314       1.85293438       1.08004072      -0.01110922      -0.01214959      -0.01529722
