6
Properties=species:S:1:pos:R:3:forces:R:3 #=T CELL(abcABC):=T 200.00000=T 90.00000=T Step:=T 67=T Bead:=T 0=T positionsangstrom=T cellatomic_unit=T energy=-28.560746447640973 stress="inf inf -inf inf inf inf -inf inf -inf" free_energy=-28.560746447640973 pbc="F F F"
O        0.14446612      -0.96689756       0.26125211       0.01346851       0.01760008       0.01567751
H       -0.78991729      -0.87250499       0.02046254      -0.00702756      -0.00155919      -0.00472207
H        0.53182381      -1.44986605      -0.48483722      -0.00014477      -0.00462927      -0.00748323
O        2.66061930       3.66181616       1.57020980      -0.00190982       0.00217636      -0.00752270
H        2.95884920       3.54787620       2.48560442       0.00520375       0.00097877       0.01257397
H        2.21737267       2.82465693       1.36347183      -0.00959011      -0.01456676      -0.00852347
