6
Properties=species:S:1:pos:R:3:forces:R:3 #=T CELL(abcABC):=T 200.00000=T 90.00000=T Step:=T 67=T Bead:=T 0=T positionsangstrom=T cellatomic_unit=T energy=-28.57104009488992 stress="inf inf inf inf inf inf inf inf -inf" free_energy=-28.57104009488992 pbc="F F F"
O        0.14456946      -0.96660189       0.26118661       0.01693670       0.02479624       0.01655520
H       -0.78991140      -0.87262333       0.02055652      -0.00731097      -0.00242364      -0.00385100
H        0.53179818      -1.44996877      -0.48473017      -0.00006418      -0.00563560      -0.00674096
O        2.39514573       3.17624071       1.42891878      -0.00417082      -0.00256959      -0.00803682
H        2.69305561       3.06163668       2.34423455       0.00426973      -0.00184212       0.01335692
H        1.95175561       2.33899143       1.22190705      -0.00966045      -0.01232529      -0.01128333
