6
Properties=species:S:1:pos:R:3:forces:R:3 #=T CELL(abcABC):=T 200.00000=T 90.00000=T Step:=T 67=T Bead:=T 0=T positionsangstrom=T cellatomic_unit=T energy=-28.386122241921456 pbc="F F F"
O        0.14463385      -0.96647112       0.26121136       0.04622412       0.06193264       0.05014272
H       -0.79377823      -0.87059479       0.02217819       0.00466167      -0.01270621      -0.02273431
H        0.53596902      -1.45145340      -0.48618374      -0.02363836      -0.00030507      -0.01186593
O        2.26528801       2.93899498       1.35948723      -0.02353341      -0.02250724      -0.03615031
H        2.56479412       2.82566658       2.27754313       0.01004086      -0.00524805       0.03244641
H        1.81995946       2.09902305       1.15050421      -0.01375489      -0.02116608      -0.01183859
