6
Properties=species:S:1:pos:R:3:forces:R:3 #=T CELL(abcABC):=T 200.00000=T 90.00000=T Step:=T 67=T Bead:=T 0=T positionsangstrom=T cellatomic_unit=T energy=-28.666136289731984 pbc="F F F"
O        0.14559836      -0.96886512       0.26649535       0.00232885      -0.01036479       0.01780453
H       -0.78976926      -0.86674527       0.02027839      -0.00768465       0.03611620       0.00625624
H        0.53542133      -1.44558577      -0.48633173       0.03100751       0.01941377      -0.00841029
O        1.43954445       1.42578427       0.92327371      -0.01296824      -0.00648497      -0.02673619
H        1.74224856       1.32158434       1.83926604      -0.01175483      -0.01044333      -0.01906543
H        0.98488755       0.57484127       0.70236707      -0.00092864      -0.02823689       0.03015114
