3
Properties=species:S:1:pos:R:3:forces:R:3 energy=-14.160290477004262 stress="inf -inf inf -inf inf -inf inf -inf inf" free_energy=-14.160290477004262 pbc="F F F"
H       -0.00000000      -0.05992468      -0.35500711      -0.00000000      -0.00000001      -0.00000011
O       -0.00000000       0.71829925       0.22895965       0.00000000      -0.00000036       0.00000077
H        0.00000000       0.34162543       1.12604746      -0.00000000       0.00000037      -0.00000065
