3
Properties=species:S:1:pos:R:3:forces:R:3 energy=-14.169202956282598 pbc="F F F"
H       -0.00000000      -0.05347522      -0.36037126      -0.00000000       0.00000010       0.00000017
O       -0.00000000       0.71740763       0.23278391       0.00000000       0.00000016      -0.00000060
H       -0.00000000       0.33606760       1.12758735       0.00000000      -0.00000026       0.00000043
