6
Properties=species:S:1:pos:R:3:forces:R:3 #=T CELL(abcABC):=T 200.00000=T 90.00000=T Step:=T 67=T Bead:=T 0=T positionsangstrom=T cellatomic_unit=T energy=-28.50255723156774 pbc="F F F"
O        0.15149633      -0.89701803       0.20114693      -0.00000000       0.00000000       0.00000000
H       -0.80924225      -0.89753872       0.04583809      -0.00000000       0.00000000      -0.00000000
H        0.54062565      -1.48601088      -0.46878254       0.00000000      -0.00000000      -0.00000000
O        1.42833260       1.39831138       0.92560851       0.00000000       0.00000001      -0.00000000
H        1.73568151       1.30259999       1.84124205      -0.00000000      -0.00000000       0.00000000
H        0.97213616       0.54951726       0.69959107      -0.00000000      -0.00000000       0.00000000
