6
Properties=species:S:1:pos:R:3:forces:R:3 #=T CELL(abcABC):=T 200.00000=T 90.00000=T Step:=T 67=T Bead:=T 0=T positionsangstrom=T cellatomic_unit=T energy=-28.791819633978182 pbc="F F F"
O        0.07002895      -1.14158213       0.26683394      -0.00000000       0.00000000       0.00000000
H       -0.80497933      -0.85254357      -0.03722342      -0.00000000       0.00000000      -0.00000000
H        0.52044560      -1.43017324      -0.54277935      -0.00000000      -0.00000000       0.00000000
O        1.43580209       1.42393405       0.91624026       0.00000000       0.00000000      -0.00000001
H        1.78102373       1.42398089       1.82126063       0.00000000       0.00000000       0.00000001
H        1.01670896       0.54624499       0.82031203       0.00000000      -0.00000000      -0.00000000
