3
Properties=species:S:1:pos:R:3:forces:R:3 energy=-14.285827697209205 pbc="F F F"
H        0.00000000      -0.06511654      -0.34814086       0.00000000       0.00000100       0.00000045
O        0.00000000       0.71673387       0.22554017      -0.00000000      -0.00000363       0.00000537
H       -0.00000000       0.34838267       1.12260069       0.00000000       0.00000263      -0.00000582
