3
Properties=species:S:1:pos:R:3:forces:R:3 energy=-14.276486394459713 stress="-inf -inf -inf -inf inf inf -inf inf inf" free_energy=-14.276486394459713 pbc="F F F"
H       -0.00000000      -0.38338879       0.00220443      -0.00000000       0.00000001       0.00000000
H        0.00000000       1.12051015       0.27259111       0.00000000       0.00000000      -0.00000000
O        0.00000000       0.26287864       0.72520447      -0.00000000      -0.00000001      -0.00000000
