6
Properties=species:S:1:pos:R:3:forces:R:3 #=T CELL(abcABC):=T 200.00000=T 90.00000=T Step:=T 67=T Bead:=T 0=T positionsangstrom=T cellatomic_unit=T energy=-28.754800881752306 stress="-inf -inf -inf -inf inf inf -inf inf inf" free_energy=-28.754800881752306 pbc="F F F"
O        0.07236206      -1.13480723       0.26522137      -0.00000000       0.00000000       0.00000000
H       -0.80725322      -0.85712930      -0.03623144      -0.00000000       0.00000000      -0.00000000
H        0.51914643      -1.43519007      -0.54215447      -0.00000000      -0.00000000       0.00000000
O        1.43746788       1.42603672       0.91819087       0.00000000      -0.00000000      -0.00000000
H        1.78079477       1.42111327       1.82393102      -0.00000000       0.00000000       0.00000000
H        1.01651209       0.54983762       0.81568674       0.00000000      -0.00000000      -0.00000000
